14

C       0.656521   -0.733293    0.411045
C       1.776515   -1.592506   -0.088132
C       0.656226    0.733238    0.411053
H      -0.007460   -1.204619    1.125125
O      -0.085731   -0.000171   -0.606899
C       1.775857    1.592920   -0.088125
H      -0.007988    1.204271    1.125107
H       2.384478   -1.081081   -0.827987
H       2.412813   -1.885438    0.747242
H       1.375896   -2.498367   -0.539793
H       1.374855    2.498655   -0.539696
H       2.412101    1.886041    0.747224
H       2.383964    1.081784   -0.828063
Cl     -2.401972   -0.000120   -0.001706