14

C    -0.820153   -0.737790   -0.386561
C    -1.897087   -1.681408    0.050226
C    -0.925662    0.701597   -0.319070
H    -0.061726   -1.147767   -1.043334
O    -0.216767    0.083815    0.705177
C    -2.016886    1.668830   -0.071554
H     1.583329    0.104042    0.394243
H    -2.581839   -1.200823    0.743963
H    -1.466805   -2.557722    0.532829
H    -2.460618   -2.018952   -0.819467
H    -1.624944    2.556372    0.421812
H    -2.470396    1.968759   -1.013263
H    -2.795033    1.240370    0.567974
Cl    2.798288    0.039872   -0.062613


