 14

C   -1.120009  -0.761808  -0.052651
C   -2.525247  -0.710208  -0.560338
C   -0.283300   0.409578   0.142421
H   -0.609096  -1.714234  -0.116894
O   -0.884853  -0.095027   1.258101
C   -0.362480   1.840933  -0.253187
H    0.973444   0.055628   0.067927
H   -2.959019   0.277356  -0.426099
H   -3.145567  -1.437170  -0.037992
H   -2.539842  -0.957366  -1.621854
H    0.117678   2.459402   0.502425
H    0.144634   1.993241  -1.202625
H   -1.403989   2.154059  -0.347065
Cl   2.477065  -0.394163  -0.148262