14

C    -1.130633   -0.770817   -0.038744
C    -2.529471   -0.795363   -0.568989
C    -0.356792    0.440494    0.146447
H    -0.582377   -1.704283   -0.070961
O    -0.952375   -0.065907    1.263849
C    -0.463559    1.856220   -0.283392
H     1.301938    0.005117    0.047536
H    -3.009009    0.174251   -0.461166
H    -3.125135   -1.539671   -0.042218
H    -2.515966   -1.062680   -1.625732
H    -0.020338    2.506658    0.468209
H     0.060560    2.003724   -1.224568
H    -1.510154    2.145263   -0.412184
Cl    2.582483   -0.375549   -0.136567
